PoolFireXylene_without_tank_pyro_dikeV1.fds
Generated by PyroSim - Version 2022.1.0422
11/10/2022 11:12:29 PM

&HEAD CHID='PoolFireXylene_without_tank_pyro_dikeV1', TITLE='Poolfire Xylene dike'/
&TIME T_END=30.0/
&DUMP DT_RESTART=300.0, DT_SL3D=0.25/
&MISC P_INF=8.680621E+4, TMPA=22.0, POSITIVE_ERROR_TEST=.TRUE./
&WIND SPEED=6.0, DIRECTION=90.0/

&MESH ID='Mesh01', IJK=150,150,100, XB=-25.0,20.0,-15.0,30.0,0.0,30.0/


REAC ID='XYLENE',
      FYI='Table A.40,A30 SFPE Handbook',
      FUEL='REAC_FUEL',
      FORMULA='C8H10',
      AUTO_IGNITION_TEMPERATURE=464.0,
      CO_YIELD=0.065,
      SOOT_YIELD=0.175,
	  H=10,
      C=8,
      HEAT_OF_COMBUSTION=4.6112E+4/
	  
	  
&REAC ID='Reaction1',
      FUEL='XYLENE',
      FORMULA='C8H10',
      CO_YIELD=0.065,
      SOOT_YIELD=0.175,
      HEAT_OF_COMBUSTION=4.6112E+4,
      RADIATIVE_FRACTION=0.4,
      H=10,
      C=8/

&DEVC ID='THCP', QUANTITY='THERMOCOUPLE', XYZ=6.33298,6.513036,7.0/

&MATL ID='STEEL',
      SPECIFIC_HEAT=0.465,
      CONDUCTIVITY=54.0,
      DENSITY=7800.0,
      EMISSIVITY=0.8/
&MATL ID='CONCRETE',
      FYI='NBSIR 88-3752 - ATF NIST Multi-Floor Validation',
      SPECIFIC_HEAT=1.04,
      CONDUCTIVITY=1.8,
      DENSITY=2280.0/

&SURF ID='STEEL SURF',
      COLOR='GRAY 50',
      MATL_ID(1,1)='STEEL',
      MATL_MASS_FRACTION(1,1)=1.0,
      THICKNESS(1)=5.0E-3/
&SURF ID='POOL',
      FYI='NISTIR 6546 Thermal Radiation from Large Pool Fires nov 2000',
      COLOR='RED',
      HRRPUA=3700.0,
      TMP_FRONT=0.0/
&SURF ID='CONCRETE_DIKE',
      RGB=0,204,204,
      BACKING='VOID',
      MATL_ID(1,1)='CONCRETE',
      MATL_MASS_FRACTION(1,1)=1.0,
      THICKNESS(1)=0.1/
	  

&OBST ID='Tanque-B480', XB=7.15,10.35,-2.89,0.31,1.665335E-16,6.0, SURF_ID='STEEL SURF'/ 
&OBST ID='Tanque-B478', XB=1.15,5.15,-4.66,-0.66,1.665335E-16,6.0, SURF_ID='STEEL SURF'/ 
&OBST ID='Tanque-B477', XB=-4.17,-0.17,-4.66,-0.66,1.665335E-16,6.0, SURF_ID='STEEL SURF'/ 
&OBST ID='Tanque-B453', XB=-10.23,-7.43,-4.06,-1.26,1.665335E-16,6.0, SURF_ID='STEEL SURF'/ 
&OBST ID='Tanque-B466', XB=-15.98,-10.94,-5.18,-0.14,1.665335E-16,6.0, SURF_ID='STEEL SURF'/ 
&OBST ID='Tanque-B462', XB=11.54,14.74,-4.02,-0.82,1.665335E-16,6.0, SURF_ID='STEEL SURF'/ 
&OBST ID='Tanque-B463', XB=11.54,14.74,0.47,3.67,1.665335E-16,6.0, SURF_ID='STEEL SURF'/ 
&OBST ID='Tanque-B468', XB=-2.87,-0.23,2.18,9.1,1.665335E-16,2.63, RGB=204,204,255, SURF_ID='STEEL SURF'/ 
&OBST ID='Tanque-B469', XB=-6.17,-3.53,2.18,9.1,1.665335E-16,2.63, RGB=204,204,255, SURF_ID='STEEL SURF'/ 
&OBST ID='Tanque-B470', XB=-9.47,-6.83,2.18,9.1,1.665335E-16,2.63, RGB=204,204,255, SURF_ID='STEEL SURF'/ 
&OBST ID='Tanque-B468', XB=-12.77,-10.13,2.18,9.1,1.665335E-16,2.63, RGB=204,204,255, SURF_ID='STEEL SURF'/ 
&OBST ID='Tanque-B472', XB=-12.77,-10.13,10.18,17.1,1.665335E-16,2.63, RGB=204,204,255, SURF_ID='STEEL SURF'/ 
&OBST ID='Tanque-B473', XB=-9.47,-6.83,10.18,17.1,1.665335E-16,2.63, RGB=204,204,255, SURF_ID='STEEL SURF'/ 
&OBST ID='Tanque-B468', XB=-6.17,-3.53,10.18,17.1,1.665335E-16,2.63, RGB=204,204,255, SURF_ID='STEEL SURF'/ 
&OBST ID='Tanque-B468', XB=-2.87,-0.23,10.18,17.1,1.665335E-16,2.63, RGB=204,204,255, SURF_ID='STEEL SURF'/ 
&OBST ID='Obstruction #191', XB=7.1541,10.4859,4.4064,6.4336,0.0,7.5, COLOR='MISTY ROSE 3', SURF_ID='STEEL SURF'/ 
&OBST ID='Obstruction #190', XB=7.4108,10.2292,4.0722,6.7678,0.0,7.5, COLOR='MISTY ROSE 3', SURF_ID='STEEL SURF'/ 
&OBST ID='Obstruction #189', XB=7.8887,9.7513,3.7068,7.1332,0.0,7.5, COLOR='MISTY ROSE 3', SURF_ID='STEEL SURF'/ 
&OBST ID='Obstruction #188', XB=7.011,10.629,4.692,6.148,0.0,7.5, COLOR='MISTY ROSE 3', SURF_ID='STEEL SURF'/ 
&OBST ID='Obstruction #187', XB=8.3128,9.3272,3.5371,7.3029,0.0,7.5, COLOR='MISTY ROSE 3', SURF_ID='STEEL SURF'/ 
&OBST ID='Obstruction #186', XB=7.5423,10.0977,3.9469,6.8931,0.0,7.5, COLOR='MISTY ROSE 3', SURF_ID='STEEL SURF'/ 
&OBST ID='Obstruction #185', XB=8.4982,9.1418,3.4967,7.3433,0.0,7.5, COLOR='MISTY ROSE 3', SURF_ID='STEEL SURF'/ 
&OBST ID='Obstruction #184', XB=6.9043,10.7357,5.0557,5.7843,0.0,7.5, COLOR='MISTY ROSE 3', SURF_ID='STEEL SURF'/ 
&OBST ID='Obstruction #183', XB=7.4349,10.2051,4.0474,6.7926,0.0,7.5, COLOR='MISTY ROSE 3', SURF_ID='STEEL SURF'/ 
&OBST ID='Obstruction #182', XB=7.0046,10.6354,4.708,6.132,0.0,7.5, COLOR='MISTY ROSE 3', SURF_ID='STEEL SURF'/ 
&OBST ID='Obstruction #181', XB=7.8216,9.8184,3.745,7.095,0.0,7.5, COLOR='MISTY ROSE 3', SURF_ID='STEEL SURF'/ 
&OBST ID='Obstruction #180', XB=6.9564,10.6836,4.846,5.994,0.0,7.5, COLOR='MISTY ROSE 3', SURF_ID='STEEL SURF'/ 
&OBST ID='Obstruction #179', XB=7.1723,10.4677,4.3772,6.4628,0.0,7.5, COLOR='MISTY ROSE 3', SURF_ID='STEEL SURF'/ 
&OBST ID='Obstruction #178', XB=8.3207,9.3193,3.535,7.305,0.0,7.5, COLOR='MISTY ROSE 3', SURF_ID='STEEL SURF'/ 
&OBST ID='Obstruction #177', XB=7.6915,9.9485,3.8297,7.0103,0.0,7.5, COLOR='MISTY ROSE 3', SURF_ID='STEEL SURF'/ 
&OBST ID='Obstruction #176', XB=7.8967,9.7433,3.7025,7.1375,0.0,7.5, COLOR='MISTY ROSE 3', SURF_ID='STEEL SURF'/ 
&OBST ID='Obstruction #175', XB=7.6702,9.9698,3.8451,6.9949,0.0,7.5, COLOR='MISTY ROSE 3', SURF_ID='STEEL SURF'/ 
&OBST ID='Obstruction #174', XB=8.0839,9.5561,3.6143,7.2257,0.0,7.5, COLOR='MISTY ROSE 3', SURF_ID='STEEL SURF'/ 
&OBST ID='Obstruction #173', XB=8.052,9.588,3.6276,7.2124,0.0,7.5, COLOR='MISTY ROSE 3', SURF_ID='STEEL SURF'/ 
&OBST ID='Obstruction #172', XB=7.7554,9.8846,3.7862,7.0538,0.0,7.5, COLOR='MISTY ROSE 3', SURF_ID='STEEL SURF'/ 
! ... 42 like lines cut
&OBST ID='Obstruction #129', XB=2.2841,5.6159,2.9364,4.9636,0.0,7.5, COLOR='SLATE GRAY 4', SURF_ID='STEEL SURF'/ 
&OBST ID='Obstruction #128', XB=2.5408,5.3592,2.6022,5.2978,0.0,7.5, COLOR='SLATE GRAY 4', SURF_ID='STEEL SURF'/ 
&OBST ID='Obstruction #127', XB=3.0187,4.8813,2.2368,5.6632,0.0,7.5, COLOR='SLATE GRAY 4', SURF_ID='STEEL SURF'/ 
&OBST ID='Obstruction #126', XB=2.141,5.759,3.222,4.678,0.0,7.5, COLOR='SLATE GRAY 4', SURF_ID='STEEL SURF'/ 
&OBST ID='Obstruction #125', XB=3.4428,4.4572,2.0671,5.8329,0.0,7.5, COLOR='SLATE GRAY 4', SURF_ID='STEEL SURF'/ 
&OBST ID='Obstruction #124', XB=2.6723,5.2277,2.4769,5.4231,0.0,7.5, COLOR='SLATE GRAY 4', SURF_ID='STEEL SURF'/ 
&OBST ID='Obstruction #123', XB=3.6282,4.2718,2.0267,5.8733,0.0,7.5, COLOR='SLATE GRAY 4', SURF_ID='STEEL SURF'/ 
&OBST ID='Obstruction #122', XB=2.0343,5.8657,3.5857,4.3143,0.0,7.5, COLOR='SLATE GRAY 4', SURF_ID='STEEL SURF'/ 
&OBST ID='Obstruction #121', XB=2.5649,5.3351,2.5774,5.3226,0.0,7.5, COLOR='SLATE GRAY 4', SURF_ID='STEEL SURF'/ 
&OBST ID='Obstruction #120', XB=2.1346,5.7654,3.238,4.662,0.0,7.5, COLOR='SLATE GRAY 4', SURF_ID='STEEL SURF'/ 
&OBST ID='Obstruction #119', XB=2.9516,4.9484,2.275,5.625,0.0,7.5, COLOR='SLATE GRAY 4', SURF_ID='STEEL SURF'/ 
&OBST ID='Obstruction #118', XB=2.0864,5.8136,3.376,4.524,0.0,7.5, COLOR='SLATE GRAY 4', SURF_ID='STEEL SURF'/ 
&OBST ID='Obstruction #117', XB=2.3023,5.5977,2.9072,4.9928,0.0,7.5, COLOR='SLATE GRAY 4', SURF_ID='STEEL SURF'/ 
&OBST ID='Obstruction #116', XB=3.4507,4.4493,2.065,5.835,0.0,7.5, COLOR='SLATE GRAY 4', SURF_ID='STEEL SURF'/ 
&OBST ID='Obstruction #115', XB=2.8215,5.0785,2.3597,5.5403,0.0,7.5, COLOR='SLATE GRAY 4', SURF_ID='STEEL SURF'/ 
&OBST ID='Obstruction #114', XB=3.0267,4.8733,2.2325,5.6675,0.0,7.5, COLOR='SLATE GRAY 4', SURF_ID='STEEL SURF'/ 
&OBST ID='Obstruction #113', XB=2.8002,5.0998,2.3751,5.5249,0.0,7.5, COLOR='SLATE GRAY 4', SURF_ID='STEEL SURF'/ 
&OBST ID='Obstruction #112', XB=3.2139,4.6861,2.1443,5.7557,0.0,7.5, COLOR='SLATE GRAY 4', SURF_ID='STEEL SURF'/ 
&OBST ID='Obstruction #111', XB=3.182,4.718,2.1576,5.7424,0.0,7.5, COLOR='SLATE GRAY 4', SURF_ID='STEEL SURF'/ 
&OBST ID='Obstruction #110', XB=2.8854,5.0146,2.3162,5.5838,0.0,7.5, COLOR='SLATE GRAY 4', SURF_ID='STEEL SURF'/ 
! ... 42 like lines cut
&OBST ID='Obstruction #1', XB=2.8351,5.8049,7.4651,10.4349,0.0,0.5, SURF_ID='STEEL SURF'/ 
&OBST ID='Obstruction #2', XB=3.8728,4.7672,6.8982,11.0018,0.0,0.5, SURF_ID='STEEL SURF'/ 
&OBST ID='Obstruction #3', XB=2.6404,5.9996,7.6895,10.2105,0.0,0.5, SURF_ID='STEEL SURF'/ 
&OBST ID='Obstruction #4', XB=2.4793,6.1607,7.9391,9.9609,0.0,0.5, SURF_ID='STEEL SURF'/ 
&OBST ID='Obstruction #5', XB=3.8819,4.7581,6.8962,11.0038,0.0,0.5, SURF_ID='STEEL SURF'/ 
&OBST ID='Obstruction #6', XB=2.2263,6.4137,8.7875,9.1125,0.0,0.5, SURF_ID='STEEL SURF'/ 
&OBST ID='Obstruction #7', XB=2.2643,6.3757,8.521,9.379,0.0,0.5, SURF_ID='STEEL SURF'/ 
&OBST ID='Obstruction #8', XB=2.4883,6.1517,7.9229,9.9771,0.0,0.5, SURF_ID='STEEL SURF'/ 
&OBST ID='Obstruction #9', XB=3.0373,5.6027,7.2873,10.6127,0.0,0.5, SURF_ID='STEEL SURF'/ 
&OBST ID='Obstruction #10', XB=3.8365,4.8035,6.9064,10.9936,0.0,0.5, SURF_ID='STEEL SURF'/ 
&OBST ID='Obstruction #11', XB=2.8026,5.8374,7.4983,10.4017,0.0,0.5, SURF_ID='STEEL SURF'/ 
&OBST ID='Obstruction #12', XB=2.875,5.765,7.4262,10.4738,0.0,0.5, SURF_ID='STEEL SURF'/ 
&OBST ID='Obstruction #13', XB=2.283,6.357,8.4394,9.4606,0.0,0.5, SURF_ID='STEEL SURF'/ 
&OBST ID='Obstruction #14', XB=2.6861,5.9539,7.6308,10.2692,0.0,0.5, SURF_ID='STEEL SURF'/ 
&OBST ID='Obstruction #15', XB=3.2366,5.4034,7.151,10.749,0.0,0.5, SURF_ID='STEEL SURF'/ 
&OBST ID='Obstruction #16', XB=3.9732,4.6668,6.8788,11.0212,0.0,0.5, SURF_ID='STEEL SURF'/ 
&OBST ID='Obstruction #17', XB=4.0559,4.5841,6.8667,11.0333,0.0,0.5, SURF_ID='STEEL SURF'/ 
&OBST ID='Obstruction #18', XB=2.2444,6.3956,8.6307,9.2693,0.0,0.5, SURF_ID='STEEL SURF'/ 
&OBST ID='Obstruction #19', XB=3.1893,5.4507,7.1804,10.7196,0.0,0.5, SURF_ID='STEEL SURF'/ 
&OBST ID='Obstruction #20', XB=2.9368,5.7032,7.3699,10.5301,0.0,0.5, SURF_ID='STEEL SURF'/ 
! ... 47 like lines cut
&OBST ID='Obstruction', XB=1.58187,11.08409,1.658954,11.367118,0.0,0.5, SURF_IDS='POOL','CONCRETE_DIKE','CONCRETE_DIKE'/ 

&VENT ID='Mesh Vent: Mesh01 [XMAX]', SURF_ID='OPEN', XB=20.0,20.0,-15.0,30.0,0.0,30.0/ 
&VENT ID='Mesh Vent: Mesh01 [XMIN]', SURF_ID='OPEN', XB=-25.0,-25.0,-15.0,30.0,0.0,30.0/ 
&VENT ID='Mesh Vent: Mesh01 [YMAX]', SURF_ID='OPEN', XB=-25.0,20.0,30.0,30.0,0.0,30.0/
&VENT ID='Mesh Vent: Mesh01 [YMIN]', SURF_ID='OPEN', XB=-25.0,20.0,-15.0,-15.0,0.0,30.0/ 
&VENT ID='Mesh Vent: Mesh01 [ZMAX]', SURF_ID='OPEN', XB=-25.0,20.0,-15.0,30.0,30.0,30.0/ 

&BNDF QUANTITY='INCIDENT HEAT FLUX'/
&BNDF QUANTITY='RADIATIVE HEAT FLUX'/
&BNDF QUANTITY='WALL TEMPERATURE'/

&SLCF QUANTITY='TEMPERATURE', PBY=0.0/
&SLCF QUANTITY='HRRPUV', PBY=0.0/
&SLCF QUANTITY='TEMPERATURE', PBY=-6.0/
&SLCF QUANTITY='HRRPUV', PBY=-6.0/
&SLCF QUANTITY='TEMPERATURE', PBX=0.0/
&SLCF QUANTITY='HRRPUV', PBX=0.0/
&SLCF QUANTITY='TEMPERATURE', PBX=11.0/
&SLCF QUANTITY='HRRPUV', PBX=11.0/
&SLCF QUANTITY='TEMPERATURE', PBZ=0.0/
&SLCF QUANTITY='HRRPUV', PBZ=0.0/
&SLCF QUANTITY='TEMPERATURE', PBZ=7.0/
&SLCF QUANTITY='HRRPUV', PBZ=7.0/

&DEVC ID='Temperature_STEADY STATE', QUANTITY='TEMPERATURE', XB=6.33298,6.33298,6.513036,6.513036,0.5,30.0, POINTS=50/
DEVC ID='Radiative Heat Flux_STEADY STATE', QUANTITY='RADIATIVE HEAT FLUX', XB=6.33298,6.33298,6.513036,6.513036,0.5,30.0, POINTS=50/
&DEVC ID='Heat Release Rate per Unit Volume_STEADY STATE', QUANTITY='HRRPUV', XB=6.33298,6.33298,6.513036,6.513036,0.5,30.0, POINTS=50/


&TAIL /
